iidm/iidm-xml-converter/src/test/resources/lcc-TOPO.xiidm
<?xml version="1.0" encoding="UTF-8"?>
<iidm:network xmlns:iidm="http://www.itesla_project.eu/schema/iidm/1_0" id="hvdctest" caseDate="2016-06-27T16:34:55.930+02:00" forecastDistance="0" sourceFormat="test">
    <iidm:substation id="S1">
        <iidm:voltageLevel id="VL1">
            <iidm:shunt id="C1_Filter1" bus="B1" connectableBus="B1"/>
            <iidm:shunt id="C1_Filter2" connectableBus="B1"/>
            <iidm:lccConverterStation id="C1" bus="B1" connectableBus="B1"/>
        </iidm:voltageLevel>
    </iidm:substation>
    <iidm:substation id="S2">
        <iidm:voltageLevel id="VL2">
            <iidm:nodeBreakerTopology>
                <iidm:switch id="DISC_BBS1_BK1" open="false"/>
                <iidm:switch id="BK1" open="false"/>
                <iidm:switch id="DISC_BBS1_BK2" open="false"/>
                <iidm:switch id="BK2" open="false"/>
                <iidm:switch id="DISC_BBS1_BK3" open="false"/>
                <iidm:switch id="BK3" open="false"/>
            </iidm:nodeBreakerTopology>
            <iidm:lccConverterStation id="C2"/>
        </iidm:voltageLevel>
    </iidm:substation>
</iidm:network>
